Version 4
SHEET 1 1040 680
WIRE 352 -688 112 -688
WIRE 464 -688 352 -688
WIRE 624 -688 544 -688
WIRE 112 -640 112 -688
WIRE 624 -640 624 -688
WIRE -352 -528 -496 -528
WIRE -256 -528 -272 -528
WIRE -160 -528 -192 -528
WIRE 0 -528 -80 -528
WIRE 112 -528 112 -560
WIRE 240 -528 112 -528
WIRE 112 -512 112 -528
WIRE -496 -480 -496 -528
WIRE 432 -480 288 -480
WIRE 576 -480 512 -480
WIRE 112 -384 112 -432
WIRE 352 -368 352 -688
WIRE -352 -352 -496 -352
WIRE -256 -352 -272 -352
WIRE -160 -352 -192 -352
WIRE 0 -352 0 -528
WIRE 0 -352 -80 -352
WIRE 288 -352 288 -480
WIRE 288 -352 0 -352
WIRE 320 -352 288 -352
WIRE 576 -336 576 -480
WIRE 576 -336 384 -336
WIRE 640 -336 576 -336
WIRE 784 -336 720 -336
WIRE 944 -336 784 -336
WIRE 240 -320 240 -528
WIRE 320 -320 240 -320
WIRE -496 -304 -496 -352
WIRE 784 -304 784 -336
WIRE 352 -192 352 -304
WIRE 784 -192 784 -240
WIRE -352 -176 -496 -176
WIRE -256 -176 -272 -176
WIRE -160 -176 -192 -176
WIRE 0 -176 0 -352
WIRE 0 -176 -80 -176
WIRE -496 -128 -496 -176
FLAG 112 -384 0
FLAG 624 -640 0
FLAG -496 -480 0
FLAG -496 -304 0
FLAG -496 -128 0
FLAG 352 -192 0
FLAG 944 -336 output
FLAG 784 -192 0
SYMBOL res -64 -544 R90
WINDOW 0 0 56 VBottom 2
WINDOW 3 32 56 VTop 2
SYMATTR InstName R1
SYMATTR Value 10k
SYMBOL res -64 -368 R90
WINDOW 0 0 56 VBottom 2
WINDOW 3 32 56 VTop 2
SYMATTR InstName R2
SYMATTR Value 10k
SYMBOL res -64 -192 R90
WINDOW 0 0 56 VBottom 2
WINDOW 3 32 56 VTop 2
SYMATTR InstName R3
SYMATTR Value 10k
SYMBOL res 528 -496 R90
WINDOW 0 0 56 VBottom 2
WINDOW 3 32 56 VTop 2
SYMATTR InstName R4
SYMATTR Value 10k
SYMBOL OpAmps\\OP07 352 -400 R0
SYMATTR InstName U1
SYMBOL voltage 448 -688 R270
WINDOW 0 32 56 VTop 2
WINDOW 3 -32 56 VBottom 2
WINDOW 123 0 0 Left 0
WINDOW 39 0 0 Left 0
SYMATTR InstName V1
SYMATTR Value 5
SYMBOL Misc\\signal -256 -528 R90
WINDOW 0 -32 56 VBottom 2
WINDOW 3 32 56 VTop 2
WINDOW 123 0 0 Left 0
WINDOW 39 0 0 Left 0
SYMATTR InstName V2
SYMATTR Value PULSE(0 1 0 0 0 0.125m 0.25m)
SYMBOL Misc\\signal -256 -352 R90
WINDOW 0 -32 56 VBottom 2
WINDOW 3 32 56 VTop 2
WINDOW 123 0 0 Left 0
WINDOW 39 0 0 Left 0
SYMATTR InstName V3
SYMATTR Value PULSE(0 1 0 0 0 0.1m 0.2m)
SYMBOL Misc\\signal -256 -176 R90
WINDOW 0 -32 56 VBottom 2
WINDOW 3 32 56 VTop 2
WINDOW 123 0 0 Left 0
WINDOW 39 0 0 Left 0
SYMATTR InstName V4
SYMATTR Value PULSE(0 1 0 0 0 0.083333m 0.16666m)
SYMBOL res 96 -656 R0
SYMATTR InstName R5
SYMATTR Value 10k
SYMBOL res 96 -528 R0
SYMATTR InstName R6
SYMATTR Value 10k
SYMBOL cap -192 -544 R90
WINDOW 0 0 32 VBottom 2
WINDOW 3 32 32 VTop 2
SYMATTR InstName C1
SYMATTR Value 0.1µ
SYMBOL cap -192 -368 R90
WINDOW 0 0 32 VBottom 2
WINDOW 3 32 32 VTop 2
SYMATTR InstName C2
SYMATTR Value 0.1µ
SYMBOL cap -192 -192 R90
WINDOW 0 0 32 VBottom 2
WINDOW 3 32 32 VTop 2
SYMATTR InstName C3
SYMATTR Value 0.1µ
SYMBOL res 736 -352 R90
WINDOW 0 0 56 VBottom 2
WINDOW 3 32 56 VTop 2
SYMATTR InstName R7
SYMATTR Value 3.3k
SYMBOL cap 768 -304 R0
SYMATTR InstName C4
SYMATTR Value 0.001µ
TEXT -512 -96 Left 2 !.tran 1
